/*--------------------------------*- C++ -*----------------------------------*\
| =========                 |                                                 |
| \\      /  F ield         | OpenFOAM: The Open Source CFD Toolbox           |
|  \\    /   O peration     | Version:  5                                     |
|   \\  /    A nd           | Web:      www.OpenFOAM.org                      |
|    \\/     M anipulation  |                                                 |
\*---------------------------------------------------------------------------*/
FoamFile
{
    version     2.0;
    format      ascii;
    class       dictionary;
    object      topoSetDict;
}

// * * * * * * * * * * * * * * * * * * * * * * * * * * * * * * * * * * * * * //

actions
(
    // actuationDisk1
    {
        name    actuationDisk1CellSet;
        type    cellSet;
        action  new;
        source  boxToCell;
        sourceInfo
        {
            box (0.5 0 0) (1.5 1 0.1);
        }
    }
    {
        name    actuationDisk1;
        type    cellZoneSet;
        action  new;
        source  setToCellZone;
        sourceInfo
        {
            set actuationDisk1CellSet;
        }
    }
);
// ************************************************************************* //
