/*--------------------------------*- C++ -*----------------------------------*\
  =========                 |
  \\      /  F ield         | OpenFOAM: The Open Source CFD Toolbox
   \\    /   O peration     | Website:  https://openfoam.org
    \\  /    A nd           | Version:  6
     \\/     M anipulation  |
\*---------------------------------------------------------------------------*/
FoamFile
{
    version     2.0;
    format      ascii;
    class       polyBoundaryMesh;
    location    "constant/polyMesh";
    object      boundary;
}
// * * * * * * * * * * * * * * * * * * * * * * * * * * * * * * * * * * * * * //

5
(
    cyclic1
    {
        type            cyclic;
        inGroups        1(cyclic);
        nFaces          80;
        startFace       6280;
        matchTolerance  0.0001;
        transform       unknown;
        neighbourPatch  cyclic2;
    }
    cyclic2
    {
        type            cyclic;
        inGroups        1(cyclic);
        nFaces          80;
        startFace       6360;
        matchTolerance  0.0001;
        transform       unknown;
        neighbourPatch  cyclic1;
    }
    frontAndBack
    {
        type            empty;
        inGroups        1(empty);
        nFaces          6400;
        startFace       6440;
    }
    outlet
    {
        type            patch;
        nFaces          40;
        startFace       12840;
    }
    inlet
    {
        type            patch;
        nFaces          40;
        startFace       12880;
    }
)

// ************************************************************************* //
