/*--------------------------------*- C++ -*----------------------------------*\
| =========                 |                                                 |
| \\      /  F ield         | OpenFOAM: The Open Source CFD Toolbox           |
|  \\    /   O peration     | Version:  5                                     |
|   \\  /    A nd           | Web:      www.OpenFOAM.org                      |
|    \\/     M anipulation  |                                                 |
\*---------------------------------------------------------------------------*/
FoamFile
{
    version     2.0;
    format      ascii;
    class       dictionary;
    location    "constant";
    object      fvOptions;
}
// * * * * * * * * * * * * * * * * * * * * * * * * * * * * * * * * * * * * * //

momentumSource
    {
        type            vectorCodedSource;
        active          yes;
        name            bodyForce;
        vectorCodedSourceCoeffs
        {
        selectionMode   all;
	//	cellSet			actuationDisk1CellSet;
	    fields            (U);
            codeInclude
            #{
            #};
            codeCorrect
            #{
                Pout<< "**codeCorrect**" << endl;
            #};
            codeAddSup
            #{
			
				//Known constant values: B, R, omega, theta
				const scalar B = 1;
				const scalar R = 1;
				const scalar omega = 1000;
				const scalar theta = 40;
				
				//Converting theta to radians
				scalar PI = constant::mathematical::pi;
				scalar radTHETA = (theta*PI/180.0);
				
				//Calculating OMEGAR, NX, NY, NZ
				scalar OMEGAR = omega*R;
				const scalar NX = sin(radTHETA);
				const scalar NY = cos(radTHETA);
				const scalar NZ = 0;
				
				//Initializing all fields
				
				scalarField x_coord(cells_.size());
				scalarField y_coord(cells_.size());
				
				scalarField WX(cells_.size());
				scalarField WY(cells_.size());
				scalarField WZ(cells_.size());
				scalarField WMAG(cells_.size());
				
				scalarField WDOTN(cells_.size());
				
				scalarField WNX(cells_.size());
				scalarField WNY(cells_.size());
				scalarField WNZ(cells_.size());
				scalarField DEVLOC(cells_.size());
				scalarField angle(cells_.size());
				
				scalarField WTX(cells_.size());
				scalarField WTY(cells_.size());
				scalarField WTZ(cells_.size());
				scalarField WTMAG(cells_.size());
				
				scalarField TX(cells_.size());
				scalarField TY(cells_.size());
				scalarField TZ(cells_.size());
				
				scalarField FNX(cells_.size());
				scalarField FNY(cells_.size());
				scalarField FNZ(cells_.size());
				scalarField FTX(cells_.size());
				scalarField FTY(cells_.size());
				scalarField FTZ(cells_.size());

				scalarField MOMSRCX(cells_.size());
				scalarField MOMSRCY(cells_.size());
				scalarField MOMSRCZ(cells_.size());
				
				volVectorField bodyForce
				(
					IOobject
					(
						name_ + ":bodyForce",
						mesh_.time().timeName(),
						mesh_
					),
					mesh_,
					dimensionedVector
					(
						"zero",
						eqn.dimensions()/dimVolume,
						Zero
					)
				);
				
				volScalarField slope
				(
					IOobject
					(
						name_ + ":slope",
						mesh_.time().timeName(),
						mesh_
					),
					mesh_,
					dimensionedScalar
					(
						"zero",
						eqn.dimensions()/dimVolume,
						Zero
					)
				);
				
				volScalarField fangle
				(
					IOobject
					(
						name_ + ":fangle",
						mesh_.time().timeName(),
						mesh_
					),
					mesh_,
					dimensionedScalar
					(
						"zero",
						eqn.dimensions()/dimVolume,
						Zero
					)
				);
				
				volScalarField deviation
				(
					IOobject
					(
						name_ + ":deviation",
						mesh_.time().timeName(),
						mesh_
					),
					mesh_,
					dimensionedScalar
					(
						"zero",
						eqn.dimensions()/dimVolume,
						Zero
					)
				);
				
				const vectorField& U = eqn.psi();
				const vectorField& CC = mesh_.C(); //cell center 
				
				forAll(cells_, i)
				{
					if((CC[i].x()>=0.5) && (CC[i].x()<=1.5))

					{ 
					
					WX[i]= U[i].x();
					WY[i]= U[i].y() - OMEGAR;
					WZ[i]= 0;
					WMAG[i] = sqrt(WX[i]*WX[i] + WY[i]*WY[i] + WZ[i]*WZ[i]); 
					
					//Calculating WDOTN
					
					WDOTN[i] = WX[i]*NX + WY[i]*NY + WZ[i]*NZ;
					
////					//calculating WNX, WNY, WNZ, DEVLOC
////					
////					WNX[i] = WDOTN[i]*NX;
////					WNY[i] = WDOTN[i]*NY;
////					WNZ[i] = WDOTN[i]*NZ;
					DEVLOC[i] = asin(WDOTN[i]/WMAG[i]);
////					
////					//calculating WTX, WTY, WTZ, WTMAG
////					
////					
////					WTX[i] = WX[i] - WNX[i];
////					WTY[i] = WY[i] - WNY[i];
////					WTZ[i] = WZ[i] - WNZ[i];
////					WTMAG[i] = sqrt(WTX[i]*WTX[i] + WTY[i]*WTY[i] + WTZ[i]*WTZ[i]);
////
////					//calculating TX, TY, TZ
////					
////					TX[i] = WTX[i]/WTMAG[i];
////					TY[i] = WTY[i]/WTMAG[i];
////					TZ[i] = WTZ[i]/WTMAG[i];
					
					//calculating FNX, FNY, FNZ, FTX, FTY, FTZ
			
					FNX[i] = -PI*B*DEVLOC[i]*WMAG[i]*WMAG[i]*sin(DEVLOC[i]);
					FNY[i] = -PI*B*DEVLOC[i]*WMAG[i]*WMAG[i]*cos(DEVLOC[i]);
					FNZ[i] = -PI*B*DEVLOC[i]*WMAG[i]*WMAG[i]*NZ;
					//FNX[i] = -DEVLOC[i]*WMAG[i]*WMAG[i]*B*NX/R;
					//FNY[i] = -DEVLOC[i]*WMAG[i]*WMAG[i]*B*NY/R;
					//FNZ[i] = -DEVLOC[i]*WMAG[i]*WMAG[i]*B*NZ/R;

					//FTX[i] = DEVLOC[i]*WMAG[i]*WMAG[i]*B*TX[i]/R;
					//FTY[i] = DEVLOC[i]*WMAG[i]*WMAG[i]*B*TY[i]/R;
					//FTZ[i] = DEVLOC[i]*WMAG[i]*WMAG[i]*B*TZ[i]/R;

					//calculating MOMSRCX, MOMSRCY, MOMSRCZ
					
					MOMSRCX[i] = (FNX[i]);///cos(radTHETA));
					MOMSRCY[i] = (FNY[i]);///cos(radTHETA));
					MOMSRCZ[i] = (FNZ[i]);
					
					slope[i] = theta;
					angle[i] = - atan(U[i].y()/U[i].x());
					fangle[i] = (angle[i]*180/PI);
					deviation[i] = (DEVLOC[i]*180/PI);
					//
					//MOMSRCX[i] = (FTX[i] + FNX[i]);
					//MOMSRCY[i] = (FTY[i] + FNY[i]);
					//MOMSRCZ[i] = (FTZ[i] + FNZ[i]);
					//
					//adding source terms to the momentum equation
					 
					bodyForce[i] = vector(MOMSRCX[i], MOMSRCY[i], MOMSRCZ[i]);
					
					}
					
					else
					
					{
					
						MOMSRCX[i] = 0;
						MOMSRCY[i] = 0;
						MOMSRCZ[i] = 0;
					
						bodyForce[i] = vector(0, 0, 0);
					
					}
					//
					//std::cout << "x	y	z	slope	deviation	flow angle	" << std::endl;
					//
					
					//if (CC[i].y()=0.475)
					//{
					//if(mesh_.time().outputTime())
					//{
					//	std::cout << "	"	<< CC[i].x() << "	"<< CC[i].y() << "	"<< CC[i].z() <<
					//	"	" << theta <<
					//	"	" << DEVLOC[i] << 	
					//	"	" << std::endl;
					//	bodyForce.write();
					//}
					//}
		
					if(mesh_.time().outputTime())
					{
						bodyForce.write();
						// slope.write();
						// fangle.write();
						// deviation.write();
					}
					
			
			}
			
					
          	        eqn += bodyForce;
            #};
            codeSetValue
            #{
                Pout<< "**codeSetValue**" << endl;
            #};
            // Dummy entry. Make dependent on above to trigger recompilation
            code
            #{
                $codeInclude
                $codeCorrect
                $codeAddSup
                $codeSetValue
            #};
        }
        bodyForceCoeffs
        {
            $vectorCodedSourceCoeffs;
        }
    }



// ************************************************************************* //
